science/ieee8500_b0_may01_fine_scale/inputs/RESOURCE_OBJECTS.dss
! Separate B0 resource objects; existing authority files are referenced, never edited.
New Generator.op8500_pv_0000 phases=1 bus1=sx2673305b.1 conn=wye kv=0.12 kW=0.082517835545697332 kvar=0 kVA=0.082517835545697332 Model=1 Status=Fixed Vminpu=0.88 Vmaxpu=1.05 enabled=no
New Generator.op8500_pv_0001 phases=1 bus1=sx2673305b.2 conn=wye kv=0.12 kW=0.37856143266704106 kvar=0 kVA=0.37856143266704106 Model=1 Status=Fixed Vminpu=0.88 Vmaxpu=1.05 enabled=no
New Generator.op8500_pv_0002 phases=1 bus1=sx3048196b.1 conn=wye kv=0.12 kW=0.27301962288845577 kvar=0 kVA=0.27301962288845577 Model=1 Status=Fixed Vminpu=0.88 Vmaxpu=1.05 enabled=no
New Generator.op8500_pv_0003 phases=1 bus1=sx3048196b.2 conn=wye kv=0.12 kW=0.41919192630496044 kvar=0 kVA=0.41919192630496044 Model=1 Status=Fixed Vminpu=0.88 Vmaxpu=1.05 enabled=no
New Generator.op8500_pv_0004 phases=1 bus1=sx2991911c.1 conn=wye kv=0.12 kW=0.1104725847516822 kvar=0 kVA=0.1104725847516822 Model=1 Status=Fixed Vminpu=0.88 Vmaxpu=1.05 enabled=no
New Generator.op8500_pv_0005 phases=1 bus1=sx2991911c.2 conn=wye kv=0.12 kW=0.61255660190582473 kvar=0 kVA=0.61255660190582473 Model=1 Status=Fixed Vminpu=0.88 Vmaxpu=1.05 enabled=no
New Generator.op8500_pv_0006 phases=1 bus1=sx2973158c.1 conn=wye kv=0.12 kW=0.073021861671759253 kvar=0 kVA=0.073021861671759253 Model=1 Status=Fixed Vminpu=0.88 Vmaxpu=1.05 enabled=no
New Generator.op8500_pv_0007 phases=1 bus1=sx2973158c.2 conn=wye kv=0.12 kW=0.65000732498574698 kvar=0 kVA=0.65000732498574698 Model=1 Status=Fixed Vminpu=0.88 Vmaxpu=1.05 enabled=no
New Generator.op8500_pv_0008 phases=1 bus1=sx3048208a.1 conn=wye kv=0.12 kW=0.17271632755281022 kvar=0 kVA=0.17271632755281022 Model=1 Status=Fixed Vminpu=0.88 Vmaxpu=1.05 enabled=no
New Generator.op8500_pv_0009 phases=1 bus1=sx3048208a.2 conn=wye kv=0.12 kW=0.45785994671242519 kvar=0 kVA=0.45785994671242519 Model=1 Status=Fixed Vminpu=0.88 Vmaxpu=1.05 enabled=no
New Generator.op8500_pv_0010 phases=1 bus1=sx3029502a.1 conn=wye kv=0.12 kW=1.3460022867879908 kvar=0 kVA=1.3460022867879908 Model=1 Status=Fixed Vminpu=0.88 Vmaxpu=1.05 enabled=no
New Generator.op8500_pv_0011 phases=1 bus1=sx3029502a.2 conn=wye kv=0.12 kW=0.7567088232618765 kvar=0 kVA=0.7567088232618765 Model=1 Status=Fixed Vminpu=0.88 Vmaxpu=1.05 enabled=no
New Generator.op8500_pv_0012 phases=1 bus1=sx3104125b.1 conn=wye kv=0.12 kW=0.085466637595603343 kvar=0 kVA=0.085466637595603343 Model=1 Status=Fixed Vminpu=0.88 Vmaxpu=1.05 enabled=no
New Generator.op8500_pv_0013 phases=1 bus1=sx3104125b.2 conn=wye kv=0.12 kW=1.0678241798105512 kvar=0 kVA=1.0678241798105512 Model=1 Status=Fixed Vminpu=0.88 Vmaxpu=1.05 enabled=no
New Generator.op8500_pv_0014 phases=1 bus1=sx3160107a.1 conn=wye kv=0.12 kW=0.64312077120005584 kvar=0 kVA=0.64312077120005584 Model=1 Status=Fixed Vminpu=0.88 Vmaxpu=1.05 enabled=no
New Generator.op8500_pv_0015 phases=1 bus1=sx3160107a.2 conn=wye kv=0.12 kW=0.40823478382487605 kvar=0 kVA=0.40823478382487605 Model=1 Status=Fixed Vminpu=0.88 Vmaxpu=1.05 enabled=no
New Generator.op8500_pv_0016 phases=1 bus1=sx2785516b.1 conn=wye kv=0.12 kW=0.11614757564890678 kvar=0 kVA=0.11614757564890678 Model=1 Status=Fixed Vminpu=0.88 Vmaxpu=1.05 enabled=no
New Generator.op8500_pv_0017 phases=1 bus1=sx2785516b.2 conn=wye kv=0.12 kW=0.57606397354450911 kvar=0 kVA=0.57606397354450911 Model=1 Status=Fixed Vminpu=0.88 Vmaxpu=1.05 enabled=no
New Generator.op8500_pv_0018 phases=1 bus1=sx3141400a.1 conn=wye kv=0.12 kW=0.39148542423613741 kvar=0 kVA=0.39148542423613741 Model=1 Status=Fixed Vminpu=0.88 Vmaxpu=1.05 enabled=no
New Generator.op8500_pv_0019 phases=1 bus1=sx3141400a.2 conn=wye kv=0.12 kW=0.029293856523559359 kvar=0 kVA=0.029293856523559359 Model=1 Status=Fixed Vminpu=0.88 Vmaxpu=1.05 enabled=no
New Generator.op8500_pv_0020 phases=1 bus1=sx2897775c.1 conn=wye kv=0.12 kW=0.64801132625533486 kvar=0 kVA=0.64801132625533486 Model=1 Status=Fixed Vminpu=0.88 Vmaxpu=1.05 enabled=no
New Generator.op8500_pv_0021 phases=1 bus1=sx2897775c.2 conn=wye kv=0.12 kW=0.55743241609004923 kvar=0 kVA=0.55743241609004923 Model=1 Status=Fixed Vminpu=0.88 Vmaxpu=1.05 enabled=no
New Generator.op8500_pv_0022 phases=1 bus1=sx3010565c.1 conn=wye kv=0.12 kW=0.22607327953290438 kvar=0 kVA=0.22607327953290438 Model=1 Status=Fixed Vminpu=0.88 Vmaxpu=1.05 enabled=no
New Generator.op8500_pv_0023 phases=1 bus1=sx3010565c.2 conn=wye kv=0.12 kW=0.25634127615497304 kvar=0 kVA=0.25634127615497304 Model=1 Status=Fixed Vminpu=0.88 Vmaxpu=1.05 enabled=no
New Generator.op8500_pv_0024 phases=1 bus1=sx2916609c.1 conn=wye kv=0.12 kW=0.075976990482063161 kvar=0 kVA=0.075976990482063161 Model=1 Status=Fixed Vminpu=0.88 Vmaxpu=1.05 enabled=no
New Generator.op8500_pv_0025 phases=1 bus1=sx2916609c.2 conn=wye kv=0.12 kW=0.64705219617544296 kvar=0 kVA=0.64705219617544296 Model=1 Status=Fixed Vminpu=0.88 Vmaxpu=1.05 enabled=no
New Generator.op8500_pv_0026 phases=1 bus1=sx2879073c.1 conn=wye kv=0.12 kW=0.61048502519289227 kvar=0 kVA=0.61048502519289227 Model=1 Status=Fixed Vminpu=0.88 Vmaxpu=1.05 enabled=no
New Generator.op8500_pv_0027 phases=1 bus1=sx2879073c.2 conn=wye kv=0.12 kW=0.11254416146461485 kvar=0 kVA=0.11254416146461485 Model=1 Status=Fixed Vminpu=0.88 Vmaxpu=1.05 enabled=no
New Generator.op8500_pv_0028 phases=1 bus1=sx3104126c.1 conn=wye kv=0.12 kW=0.41883019141953176 kvar=0 kVA=0.41883019141953176 Model=1 Status=Fixed Vminpu=0.88 Vmaxpu=1.05 enabled=no
New Generator.op8500_pv_0029 phases=1 bus1=sx3104126c.2 conn=wye kv=0.12 kW=0.063584364268345558 kvar=0 kVA=0.063584364268345558 Model=1 Status=Fixed Vminpu=0.88 Vmaxpu=1.05 enabled=no
New Generator.op8500_pv_0030 phases=1 bus1=sx3029503c.1 conn=wye kv=0.12 kW=0.36818445924456544 kvar=0 kVA=0.36818445924456544 Model=1 Status=Fixed Vminpu=0.88 Vmaxpu=1.05 enabled=no
New Generator.op8500_pv_0031 phases=1 bus1=sx3029503c.2 conn=wye kv=0.12 kW=0.35484472741294121 kvar=0 kVA=0.35484472741294121 Model=1 Status=Fixed Vminpu=0.88 Vmaxpu=1.05 enabled=no
New Generator.op8500_pv_0032 phases=1 bus1=sx2691950c.1 conn=wye kv=0.12 kW=0.16379647815114431 kvar=0 kVA=0.16379647815114431 Model=1 Status=Fixed Vminpu=0.88 Vmaxpu=1.05 enabled=no
New Generator.op8500_pv_0033 phases=1 bus1=sx2691950c.2 conn=wye kv=0.12 kW=1.0416472641942398 kvar=0 kVA=1.0416472641942398 Model=1 Status=Fixed Vminpu=0.88 Vmaxpu=1.05 enabled=no
New Generator.op8500_pv_0034 phases=1 bus1=sx2691951c.1 conn=wye kv=0.12 kW=0.65598129261445293 kvar=0 kVA=0.65598129261445293 Model=1 Status=Fixed Vminpu=0.88 Vmaxpu=1.05 enabled=no
New Generator.op8500_pv_0035 phases=1 bus1=sx2691951c.2 conn=wye kv=0.12 kW=0.54946244973093128 kvar=0 kVA=0.54946244973093128 Model=1 Status=Fixed Vminpu=0.88 Vmaxpu=1.05 enabled=no
New Generator.op8500_pv_0036 phases=1 bus1=sx2879076c.1 conn=wye kv=0.12 kW=0.30969566209227167 kvar=0 kVA=0.30969566209227167 Model=1 Status=Fixed Vminpu=0.88 Vmaxpu=1.05 enabled=no
New Generator.op8500_pv_0037 phases=1 bus1=sx2879076c.2 conn=wye kv=0.12 kW=0.17271889359560574 kvar=0 kVA=0.17271889359560574 Model=1 Status=Fixed Vminpu=0.88 Vmaxpu=1.05 enabled=no
New Generator.op8500_pv_0038 phases=1 bus1=sx2841630c.1 conn=wye kv=0.12 kW=0.98608756352789262 kvar=0 kVA=0.98608756352789262 Model=1 Status=Fixed Vminpu=0.88 Vmaxpu=1.05 enabled=no
New Generator.op8500_pv_0039 phases=1 bus1=sx2841630c.2 conn=wye kv=0.12 kW=0.21935617881749164 kvar=0 kVA=0.21935617881749164 Model=1 Status=Fixed Vminpu=0.88 Vmaxpu=1.05 enabled=no
New Generator.op8500_pv_0040 phases=1 bus1=sx2841629c.1 conn=wye kv=0.12 kW=1.0293433433267667 kvar=0 kVA=1.0293433433267667 Model=1 Status=Fixed Vminpu=0.88 Vmaxpu=1.05 enabled=no
New Generator.op8500_pv_0041 phases=1 bus1=sx2841629c.2 conn=wye kv=0.12 kW=0.77941491706561894 kvar=0 kVA=0.77941491706561894 Model=1 Status=Fixed Vminpu=0.88 Vmaxpu=1.05 enabled=no
New Generator.op8500_pv_0042 phases=1 bus1=sx2785523c.1 conn=wye kv=0.12 kW=0.30056449598257617 kvar=0 kVA=0.30056449598257617 Model=1 Status=Fixed Vminpu=0.88 Vmaxpu=1.05 enabled=no
New Generator.op8500_pv_0043 phases=1 bus1=sx2785523c.2 conn=wye kv=0.12 kW=0.42246469067493053 kvar=0 kVA=0.42246469067493053 Model=1 Status=Fixed Vminpu=0.88 Vmaxpu=1.05 enabled=no
New Generator.op8500_pv_0044 phases=1 bus1=sx3216347c.1 conn=wye kv=0.12 kW=0.55238292025500524 kvar=0 kVA=0.55238292025500524 Model=1 Status=Fixed Vminpu=0.88 Vmaxpu=1.05 enabled=no
New Generator.op8500_pv_0045 phases=1 bus1=sx3216347c.2 conn=wye kv=0.12 kW=0.17064626640250147 kvar=0 kVA=0.17064626640250147 Model=1 Status=Fixed Vminpu=0.88 Vmaxpu=1.05 enabled=no
New Generator.op8500_pv_0046 phases=1 bus1=sx3141388c.1 conn=wye kv=0.12 kW=0.23747774980240011 kvar=0 kVA=0.23747774980240011 Model=1 Status=Fixed Vminpu=0.88 Vmaxpu=1.05 enabled=no
New Generator.op8500_pv_0047 phases=1 bus1=sx3141388c.2 conn=wye kv=0.12 kW=0.24493680588547728 kvar=0 kVA=0.24493680588547728 Model=1 Status=Fixed Vminpu=0.88 Vmaxpu=1.05 enabled=no
New Generator.op8500_pv_0048 phases=1 bus1=sx3066801c.1 conn=wye kv=0.12 kW=0.32587958937163974 kvar=0 kVA=0.32587958937163974 Model=1 Status=Fixed Vminpu=0.88 Vmaxpu=1.05 enabled=no
New Generator.op8500_pv_0049 phases=1 bus1=sx3066801c.2 conn=wye kv=0.12 kW=0.15653496631623767 kvar=0 kVA=0.15653496631623767 Model=1 Status=Fixed Vminpu=0.88 Vmaxpu=1.05 enabled=no
New Generator.op8500_pv_0050 phases=1 bus1=sx2879055c.1 conn=wye kv=0.12 kW=0.46261749715899109 kvar=0 kVA=0.46261749715899109 Model=1 Status=Fixed Vminpu=0.88 Vmaxpu=1.05 enabled=no
New Generator.op8500_pv_0051 phases=1 bus1=sx2879055c.2 conn=wye kv=0.12 kW=0.019797058528886368 kvar=0 kVA=0.019797058528886368 Model=1 Status=Fixed Vminpu=0.88 Vmaxpu=1.05 enabled=no
New Generator.op8500_pv_0052 phases=1 bus1=sx2973144c.1 conn=wye kv=0.12 kW=0.96020265038446273 kvar=0 kVA=0.96020265038446273 Model=1 Status=Fixed Vminpu=0.88 Vmaxpu=1.05 enabled=no
New Generator.op8500_pv_0053 phases=1 bus1=sx2973144c.2 conn=wye kv=0.12 kW=0.24524109196092142 kvar=0 kVA=0.24524109196092142 Model=1 Status=Fixed Vminpu=0.88 Vmaxpu=1.05 enabled=no
New Generator.op8500_pv_0054 phases=1 bus1=sx2785518c.1 conn=wye kv=0.12 kW=0.47538826324151512 kvar=0 kVA=0.47538826324151512 Model=1 Status=Fixed Vminpu=0.88 Vmaxpu=1.05 enabled=no
New Generator.op8500_pv_0055 phases=1 bus1=sx2785518c.2 conn=wye kv=0.12 kW=0.2476409234159917 kvar=0 kVA=0.2476409234159917 Model=1 Status=Fixed Vminpu=0.88 Vmaxpu=1.05 enabled=no
New Generator.op8500_pv_0056 phases=1 bus1=sx2766717c.1 conn=wye kv=0.12 kW=0.30923772352762036 kvar=0 kVA=0.30923772352762036 Model=1 Status=Fixed Vminpu=0.88 Vmaxpu=1.05 enabled=no
New Generator.op8500_pv_0057 phases=1 bus1=sx2766717c.2 conn=wye kv=0.12 kW=0.17317683216025706 kvar=0 kVA=0.17317683216025706 Model=1 Status=Fixed Vminpu=0.88 Vmaxpu=1.05 enabled=no
New Generator.op8500_pv_0058 phases=1 bus1=sx2673309c.1 conn=wye kv=0.12 kW=1.1197471865099147 kvar=0 kVA=1.1197471865099147 Model=1 Status=Fixed Vminpu=0.88 Vmaxpu=1.05 enabled=no
New Generator.op8500_pv_0059 phases=1 bus1=sx2673309c.2 conn=wye kv=0.12 kW=0.085696555835469451 kvar=0 kVA=0.085696555835469451 Model=1 Status=Fixed Vminpu=0.88 Vmaxpu=1.05 enabled=no
New Generator.op8500_pv_0060 phases=1 bus1=sx3104113a.1 conn=wye kv=0.12 kW=0.56494766102861471 kvar=0 kVA=0.56494766102861471 Model=1 Status=Fixed Vminpu=0.88 Vmaxpu=1.05 enabled=no
New Generator.op8500_pv_0061 phases=1 bus1=sx3104113a.2 conn=wye kv=0.12 kW=0.48640789399631718 kvar=0 kVA=0.48640789399631718 Model=1 Status=Fixed Vminpu=0.88 Vmaxpu=1.05 enabled=no
New Generator.op8500_pv_0062 phases=1 bus1=sx3104121a.1 conn=wye kv=0.12 kW=0.77085597524944172 kvar=0 kVA=0.77085597524944172 Model=1 Status=Fixed Vminpu=0.88 Vmaxpu=1.05 enabled=no
New Generator.op8500_pv_0063 phases=1 bus1=sx3104121a.2 conn=wye kv=0.12 kW=0.28049957977549017 kvar=0 kVA=0.28049957977549017 Model=1 Status=Fixed Vminpu=0.88 Vmaxpu=1.05 enabled=no
New Generator.op8500_pv_0064 phases=1 bus1=sx2673310a.1 conn=wye kv=0.12 kW=0.80913737041776346 kvar=0 kVA=0.80913737041776346 Model=1 Status=Fixed Vminpu=0.88 Vmaxpu=1.05 enabled=no
New Generator.op8500_pv_0065 phases=1 bus1=sx2673310a.2 conn=wye kv=0.12 kW=0.24221818460716843 kvar=0 kVA=0.24221818460716843 Model=1 Status=Fixed Vminpu=0.88 Vmaxpu=1.05 enabled=no
New Generator.op8500_pv_0066 phases=1 bus1=sx2916627a.1 conn=wye kv=0.12 kW=0.76327555928119273 kvar=0 kVA=0.76327555928119273 Model=1 Status=Fixed Vminpu=0.88 Vmaxpu=1.05 enabled=no
New Generator.op8500_pv_0067 phases=1 bus1=sx2916627a.2 conn=wye kv=0.12 kW=0.28807999574373916 kvar=0 kVA=0.28807999574373916 Model=1 Status=Fixed Vminpu=0.88 Vmaxpu=1.05 enabled=no
New Generator.op8500_pv_0068 phases=1 bus1=sx2804283a.1 conn=wye kv=0.12 kW=0.89104303615288982 kvar=0 kVA=0.89104303615288982 Model=1 Status=Fixed Vminpu=0.88 Vmaxpu=1.05 enabled=no
New Generator.op8500_pv_0069 phases=1 bus1=sx2804283a.2 conn=wye kv=0.12 kW=0.16031251887204206 kvar=0 kVA=0.16031251887204206 Model=1 Status=Fixed Vminpu=0.88 Vmaxpu=1.05 enabled=no
New Generator.op8500_pv_0070 phases=1 bus1=sx3104122a.1 conn=wye kv=0.12 kW=0.99716253047524794 kvar=0 kVA=0.99716253047524794 Model=1 Status=Fixed Vminpu=0.88 Vmaxpu=1.05 enabled=no
New Generator.op8500_pv_0071 phases=1 bus1=sx3104122a.2 conn=wye kv=0.12 kW=0.054193024549683493 kvar=0 kVA=0.054193024549683493 Model=1 Status=Fixed Vminpu=0.88 Vmaxpu=1.05 enabled=no
New Generator.op8500_pv_0072 phases=1 bus1=sx2785519a.1 conn=wye kv=0.12 kW=0.98470077180039928 kvar=0 kVA=0.98470077180039928 Model=1 Status=Fixed Vminpu=0.88 Vmaxpu=1.05 enabled=no
New Generator.op8500_pv_0073 phases=1 bus1=sx2785519a.2 conn=wye kv=0.12 kW=0.066654783224532305 kvar=0 kVA=0.066654783224532305 Model=1 Status=Fixed Vminpu=0.88 Vmaxpu=1.05 enabled=no
New Generator.op8500_pv_0074 phases=1 bus1=sx2748129a.1 conn=wye kv=0.12 kW=0.058007421837366915 kvar=0 kVA=0.058007421837366915 Model=1 Status=Fixed Vminpu=0.88 Vmaxpu=1.05 enabled=no
New Generator.op8500_pv_0075 phases=1 bus1=sx2748129a.2 conn=wye kv=0.12 kW=1.5184332638257165 kvar=0 kVA=1.5184332638257165 Model=1 Status=Fixed Vminpu=0.88 Vmaxpu=1.05 enabled=no
New Generator.op8500_pv_0076 phases=1 bus1=sx2973151a.1 conn=wye kv=0.12 kW=0.46019564603154639 kvar=0 kVA=0.46019564603154639 Model=1 Status=Fixed Vminpu=0.88 Vmaxpu=1.05 enabled=no
New Generator.op8500_pv_0077 phases=1 bus1=sx2973151a.2 conn=wye kv=0.12 kW=0.17038062823369016 kvar=0 kVA=0.17038062823369016 Model=1 Status=Fixed Vminpu=0.88 Vmaxpu=1.05 enabled=no
New Generator.op8500_pv_0078 phases=1 bus1=sx2748146a.1 conn=wye kv=0.12 kW=0.067794514647630852 kvar=0 kVA=0.067794514647630852 Model=1 Status=Fixed Vminpu=0.88 Vmaxpu=1.05 enabled=no
New Generator.op8500_pv_0079 phases=1 bus1=sx2748146a.2 conn=wye kv=0.12 kW=0.56278175961760457 kvar=0 kVA=0.56278175961760457 Model=1 Status=Fixed Vminpu=0.88 Vmaxpu=1.05 enabled=no
New Generator.op8500_pv_0080 phases=1 bus1=sx2991913a.1 conn=wye kv=0.12 kW=0.18394094436954886 kvar=0 kVA=0.18394094436954886 Model=1 Status=Fixed Vminpu=0.88 Vmaxpu=1.05 enabled=no
New Generator.op8500_pv_0081 phases=1 bus1=sx2991913a.2 conn=wye kv=0.12 kW=0.44663532989568655 kvar=0 kVA=0.44663532989568655 Model=1 Status=Fixed Vminpu=0.88 Vmaxpu=1.05 enabled=no
New Generator.op8500_pv_0082 phases=1 bus1=sx3235253a.1 conn=wye kv=0.12 kW=0.76188037070657699 kvar=0 kVA=0.76188037070657699 Model=1 Status=Fixed Vminpu=0.88 Vmaxpu=1.05 enabled=no
New Generator.op8500_pv_0083 phases=1 bus1=sx3235253a.2 conn=wye kv=0.12 kW=0.28947518431835489 kvar=0 kVA=0.28947518431835489 Model=1 Status=Fixed Vminpu=0.88 Vmaxpu=1.05 enabled=no
New Generator.op8500_pv_0084 phases=1 bus1=sx2991907a.1 conn=wye kv=0.12 kW=0.69039907724053451 kvar=0 kVA=0.69039907724053451 Model=1 Status=Fixed Vminpu=0.88 Vmaxpu=1.05 enabled=no
New Generator.op8500_pv_0085 phases=1 bus1=sx2991907a.2 conn=wye kv=0.12 kW=0.36095647778439743 kvar=0 kVA=0.36095647778439743 Model=1 Status=Fixed Vminpu=0.88 Vmaxpu=1.05 enabled=no
New Generator.op8500_pv_0086 phases=1 bus1=sx2879064a.1 conn=wye kv=0.12 kW=0.63654964858353125 kvar=0 kVA=0.63654964858353125 Model=1 Status=Fixed Vminpu=0.88 Vmaxpu=1.05 enabled=no
New Generator.op8500_pv_0087 phases=1 bus1=sx2879064a.2 conn=wye kv=0.12 kW=0.41480590644140064 kvar=0 kVA=0.41480590644140064 Model=1 Status=Fixed Vminpu=0.88 Vmaxpu=1.05 enabled=no
New Generator.op8500_pv_0088 phases=1 bus1=sx3197637c.1 conn=wye kv=0.12 kW=0.10235737786936946 kvar=0 kVA=0.10235737786936946 Model=1 Status=Fixed Vminpu=0.88 Vmaxpu=1.05 enabled=no
New Generator.op8500_pv_0089 phases=1 bus1=sx3197637c.2 conn=wye kv=0.12 kW=0.38005717781850806 kvar=0 kVA=0.38005717781850806 Model=1 Status=Fixed Vminpu=0.88 Vmaxpu=1.05 enabled=no
New Generator.op8500_pv_0090 phases=1 bus1=sx2860487c.1 conn=wye kv=0.12 kW=0.70157113578390651 kvar=0 kVA=0.70157113578390651 Model=1 Status=Fixed Vminpu=0.88 Vmaxpu=1.05 enabled=no
New Generator.op8500_pv_0091 phases=1 bus1=sx2860487c.2 conn=wye kv=0.12 kW=0.021458050873600653 kvar=0 kVA=0.021458050873600653 Model=1 Status=Fixed Vminpu=0.88 Vmaxpu=1.05 enabled=no
New Generator.op8500_pv_0092 phases=1 bus1=sx2841638c.1 conn=wye kv=0.12 kW=0.10734330541823529 kvar=0 kVA=0.10734330541823529 Model=1 Status=Fixed Vminpu=0.88 Vmaxpu=1.05 enabled=no
New Generator.op8500_pv_0093 phases=1 bus1=sx2841638c.2 conn=wye kv=0.12 kW=0.61568588123927082 kvar=0 kVA=0.61568588123927082 Model=1 Status=Fixed Vminpu=0.88 Vmaxpu=1.05 enabled=no
New Generator.op8500_pv_0094 phases=1 bus1=sx3235256a.1 conn=wye kv=0.12 kW=0.43750161950309074 kvar=0 kVA=0.43750161950309074 Model=1 Status=Fixed Vminpu=0.88 Vmaxpu=1.05 enabled=no
New Generator.op8500_pv_0095 phases=1 bus1=sx3235256a.2 conn=wye kv=0.12 kW=0.19307465476214464 kvar=0 kVA=0.19307465476214464 Model=1 Status=Fixed Vminpu=0.88 Vmaxpu=1.05 enabled=no
New Generator.op8500_pv_0096 phases=1 bus1=sx3197630a.1 conn=wye kv=0.12 kW=0.53192949318662486 kvar=0 kVA=0.53192949318662486 Model=1 Status=Fixed Vminpu=0.88 Vmaxpu=1.05 enabled=no
New Generator.op8500_pv_0097 phases=1 bus1=sx3197630a.2 conn=wye kv=0.12 kW=0.51942606183830697 kvar=0 kVA=0.51942606183830697 Model=1 Status=Fixed Vminpu=0.88 Vmaxpu=1.05 enabled=no
New Generator.op8500_pv_0098 phases=1 bus1=sx3104120b.1 conn=wye kv=0.12 kW=0.45859082798862388 kvar=0 kVA=0.45859082798862388 Model=1 Status=Fixed Vminpu=0.88 Vmaxpu=1.05 enabled=no
New Generator.op8500_pv_0099 phases=1 bus1=sx3104120b.2 conn=wye kv=0.12 kW=0.23362072120479238 kvar=0 kVA=0.23362072120479238 Model=1 Status=Fixed Vminpu=0.88 Vmaxpu=1.05 enabled=no
New Generator.op8500_pv_0100 phases=1 bus1=sx2804251a.1 conn=wye kv=0.12 kW=0.25308503284470901 kvar=0 kVA=0.25308503284470901 Model=1 Status=Fixed Vminpu=0.88 Vmaxpu=1.05 enabled=no
New Generator.op8500_pv_0101 phases=1 bus1=sx2804251a.2 conn=wye kv=0.12 kW=0.16769424791498749 kvar=0 kVA=0.16769424791498749 Model=1 Status=Fixed Vminpu=0.88 Vmaxpu=1.05 enabled=no
New Generator.op8500_pv_0102 phases=1 bus1=sx3254210c.1 conn=wye kv=0.12 kW=0.72026501577050073 kvar=0 kVA=0.72026501577050073 Model=1 Status=Fixed Vminpu=0.88 Vmaxpu=1.05 enabled=no
New Generator.op8500_pv_0103 phases=1 bus1=sx3254210c.2 conn=wye kv=0.12 kW=0.0027641708870060752 kvar=0 kVA=0.0027641708870060752 Model=1 Status=Fixed Vminpu=0.88 Vmaxpu=1.05 enabled=no
New Generator.op8500_pv_0104 phases=1 bus1=sx3048206a.1 conn=wye kv=0.12 kW=0.90912997908934712 kvar=0 kVA=0.90912997908934712 Model=1 Status=Fixed Vminpu=0.88 Vmaxpu=1.05 enabled=no
New Generator.op8500_pv_0105 phases=1 bus1=sx3048206a.2 conn=wye kv=0.12 kW=0.14222557593558485 kvar=0 kVA=0.14222557593558485 Model=1 Status=Fixed Vminpu=0.88 Vmaxpu=1.05 enabled=no
New Generator.op8500_pv_0106 phases=1 bus1=sx2710510c.1 conn=wye kv=0.12 kW=0.018605486626390434 kvar=0 kVA=0.018605486626390434 Model=1 Status=Fixed Vminpu=0.88 Vmaxpu=1.05 enabled=no
New Generator.op8500_pv_0107 phases=1 bus1=sx2710510c.2 conn=wye kv=0.12 kW=0.46380906906148667 kvar=0 kVA=0.46380906906148667 Model=1 Status=Fixed Vminpu=0.88 Vmaxpu=1.05 enabled=no
New Generator.op8500_pv_0108 phases=1 bus1=sx3197628c.1 conn=wye kv=0.12 kW=0.44130133034463387 kvar=0 kVA=0.44130133034463387 Model=1 Status=Fixed Vminpu=0.88 Vmaxpu=1.05 enabled=no
New Generator.op8500_pv_0109 phases=1 bus1=sx3197628c.2 conn=wye kv=0.12 kW=0.76414241200075017 kvar=0 kVA=0.76414241200075017 Model=1 Status=Fixed Vminpu=0.88 Vmaxpu=1.05 enabled=no
New Generator.op8500_pv_0110 phases=1 bus1=sx2766718c.1 conn=wye kv=0.12 kW=0.49531286005304426 kvar=0 kVA=0.49531286005304426 Model=1 Status=Fixed Vminpu=0.88 Vmaxpu=1.05 enabled=no
New Generator.op8500_pv_0111 phases=1 bus1=sx2766718c.2 conn=wye kv=0.12 kW=1.3134454003393354 kvar=0 kVA=1.3134454003393354 Model=1 Status=Fixed Vminpu=0.88 Vmaxpu=1.05 enabled=no
New Generator.op8500_pv_0112 phases=1 bus1=sx3010556a.1 conn=wye kv=0.12 kW=0.35761798913232462 kvar=0 kVA=0.35761798913232462 Model=1 Status=Fixed Vminpu=0.88 Vmaxpu=1.05 enabled=no
New Generator.op8500_pv_0113 phases=1 bus1=sx3010556a.2 conn=wye kv=0.12 kW=0.27295828513291076 kvar=0 kVA=0.27295828513291076 Model=1 Status=Fixed Vminpu=0.88 Vmaxpu=1.05 enabled=no
New Generator.op8500_pv_0114 phases=1 bus1=sx2710520a.1 conn=wye kv=0.12 kW=0.36267271998857087 kvar=0 kVA=0.36267271998857087 Model=1 Status=Fixed Vminpu=0.88 Vmaxpu=1.05 enabled=no
New Generator.op8500_pv_0115 phases=1 bus1=sx2710520a.2 conn=wye kv=0.12 kW=0.26790355427666457 kvar=0 kVA=0.26790355427666457 Model=1 Status=Fixed Vminpu=0.88 Vmaxpu=1.05 enabled=no
New Generator.op8500_pv_0116 phases=1 bus1=sx2710521a.1 conn=wye kv=0.12 kW=0.078811172068079111 kvar=0 kVA=0.078811172068079111 Model=1 Status=Fixed Vminpu=0.88 Vmaxpu=1.05 enabled=no
New Generator.op8500_pv_0117 phases=1 bus1=sx2710521a.2 conn=wye kv=0.12 kW=0.97254438295685197 kvar=0 kVA=0.97254438295685197 Model=1 Status=Fixed Vminpu=0.88 Vmaxpu=1.05 enabled=no
New Generator.op8500_pv_0118 phases=1 bus1=sx3085396a.1 conn=wye kv=0.12 kW=0.46408669410700892 kvar=0 kVA=0.46408669410700892 Model=1 Status=Fixed Vminpu=0.88 Vmaxpu=1.05 enabled=no
New Generator.op8500_pv_0119 phases=1 bus1=sx3085396a.2 conn=wye kv=0.12 kW=0.58726886091792296 kvar=0 kVA=0.58726886091792296 Model=1 Status=Fixed Vminpu=0.88 Vmaxpu=1.05 enabled=no
New Generator.op8500_pv_0120 phases=1 bus1=sx3122813a.1 conn=wye kv=0.12 kW=0.27230317379260055 kvar=0 kVA=0.27230317379260055 Model=1 Status=Fixed Vminpu=0.88 Vmaxpu=1.05 enabled=no
New Generator.op8500_pv_0121 phases=1 bus1=sx3122813a.2 conn=wye kv=0.12 kW=0.35827310047263483 kvar=0 kVA=0.35827310047263483 Model=1 Status=Fixed Vminpu=0.88 Vmaxpu=1.05 enabled=no
New Generator.op8500_pv_0122 phases=1 bus1=sx3254219c.1 conn=wye kv=0.12 kW=0.15518848338302021 kvar=0 kVA=0.15518848338302021 Model=1 Status=Fixed Vminpu=0.88 Vmaxpu=1.05 enabled=no
New Generator.op8500_pv_0123 phases=1 bus1=sx3254219c.2 conn=wye kv=0.12 kW=1.0502552589623639 kvar=0 kVA=1.0502552589623639 Model=1 Status=Fixed Vminpu=0.88 Vmaxpu=1.05 enabled=no
New Generator.op8500_pv_0124 phases=1 bus1=sx3254220c.1 conn=wye kv=0.12 kW=0.26647752267445945 kvar=0 kVA=0.26647752267445945 Model=1 Status=Fixed Vminpu=0.88 Vmaxpu=1.05 enabled=no
New Generator.op8500_pv_0125 phases=1 bus1=sx3254220c.2 conn=wye kv=0.12 kW=0.93896621967092475 kvar=0 kVA=0.93896621967092475 Model=1 Status=Fixed Vminpu=0.88 Vmaxpu=1.05 enabled=no
New Generator.op8500_pv_0126 phases=1 bus1=sx3104134c.1 conn=wye kv=0.12 kW=1.0034864832814083 kvar=0 kVA=1.0034864832814083 Model=1 Status=Fixed Vminpu=0.88 Vmaxpu=1.05 enabled=no
New Generator.op8500_pv_0127 phases=1 bus1=sx3104134c.2 conn=wye kv=0.12 kW=0.20195725906397588 kvar=0 kVA=0.20195725906397588 Model=1 Status=Fixed Vminpu=0.88 Vmaxpu=1.05 enabled=no
New Generator.op8500_pv_0128 phases=1 bus1=sx2860490a.1 conn=wye kv=0.12 kW=0.02172161471674601 kvar=0 kVA=0.02172161471674601 Model=1 Status=Fixed Vminpu=0.88 Vmaxpu=1.05 enabled=no
New Generator.op8500_pv_0129 phases=1 bus1=sx2860490a.2 conn=wye kv=0.12 kW=1.029633940308186 kvar=0 kVA=1.029633940308186 Model=1 Status=Fixed Vminpu=0.88 Vmaxpu=1.05 enabled=no
New Generator.op8500_pv_0130 phases=1 bus1=sx3254218a.1 conn=wye kv=0.12 kW=0.34312677744131048 kvar=0 kVA=0.34312677744131048 Model=1 Status=Fixed Vminpu=0.88 Vmaxpu=1.05 enabled=no
New Generator.op8500_pv_0131 phases=1 bus1=sx3254218a.2 conn=wye kv=0.12 kW=0.70822877758362146 kvar=0 kVA=0.70822877758362146 Model=1 Status=Fixed Vminpu=0.88 Vmaxpu=1.05 enabled=no
New Generator.op8500_pv_0132 phases=1 bus1=sx3066818b.1 conn=wye kv=0.12 kW=1.1369702817119278 kvar=0 kVA=1.1369702817119278 Model=1 Status=Fixed Vminpu=0.88 Vmaxpu=1.05 enabled=no
New Generator.op8500_pv_0133 phases=1 bus1=sx3066818b.2 conn=wye kv=0.12 kW=0.016320535694226725 kvar=0 kVA=0.016320535694226725 Model=1 Status=Fixed Vminpu=0.88 Vmaxpu=1.05 enabled=no
New Generator.op8500_pv_0134 phases=1 bus1=sx2785528b.1 conn=wye kv=0.12 kW=0.49500282392509359 kvar=0 kVA=0.49500282392509359 Model=1 Status=Fixed Vminpu=0.88 Vmaxpu=1.05 enabled=no
New Generator.op8500_pv_0135 phases=1 bus1=sx2785528b.2 conn=wye kv=0.12 kW=0.19720872526832267 kvar=0 kVA=0.19720872526832267 Model=1 Status=Fixed Vminpu=0.88 Vmaxpu=1.05 enabled=no
New Generator.op8500_pv_0136 phases=1 bus1=sx2748130b.1 conn=wye kv=0.12 kW=0.10579308359010541 kvar=0 kVA=0.10579308359010541 Model=1 Status=Fixed Vminpu=0.88 Vmaxpu=1.05 enabled=no
New Generator.op8500_pv_0137 phases=1 bus1=sx2748130b.2 conn=wye kv=0.12 kW=1.0474977338160487 kvar=0 kVA=1.0474977338160487 Model=1 Status=Fixed Vminpu=0.88 Vmaxpu=1.05 enabled=no
New Generator.op8500_pv_0138 phases=1 bus1=sx3254212b.1 conn=wye kv=0.12 kW=0.35654035077336604 kvar=0 kVA=0.35654035077336604 Model=1 Status=Fixed Vminpu=0.88 Vmaxpu=1.05 enabled=no
New Generator.op8500_pv_0139 phases=1 bus1=sx3254212b.2 conn=wye kv=0.12 kW=1.3728032284615534 kvar=0 kVA=1.3728032284615534 Model=1 Status=Fixed Vminpu=0.88 Vmaxpu=1.05 enabled=no
New Generator.op8500_pv_0140 phases=1 bus1=sx2785520b.1 conn=wye kv=0.12 kW=0.14633800283408249 kvar=0 kVA=0.14633800283408249 Model=1 Status=Fixed Vminpu=0.88 Vmaxpu=1.05 enabled=no
New Generator.op8500_pv_0141 phases=1 bus1=sx2785520b.2 conn=wye kv=0.12 kW=0.31474126537865538 kvar=0 kVA=0.31474126537865538 Model=1 Status=Fixed Vminpu=0.88 Vmaxpu=1.05 enabled=no
New Generator.op8500_pv_0142 phases=1 bus1=sx2729411a.1 conn=wye kv=0.12 kW=0.024263581105703966 kvar=0 kVA=0.024263581105703966 Model=1 Status=Fixed Vminpu=0.88 Vmaxpu=1.05 enabled=no
New Generator.op8500_pv_0143 phases=1 bus1=sx2729411a.2 conn=wye kv=0.12 kW=0.39651569965399219 kvar=0 kVA=0.39651569965399219 Model=1 Status=Fixed Vminpu=0.88 Vmaxpu=1.05 enabled=no
New Generator.op8500_pv_0144 phases=1 bus1=sx2897781a.1 conn=wye kv=0.12 kW=0.12731801491690392 kvar=0 kVA=0.12731801491690392 Model=1 Status=Fixed Vminpu=0.88 Vmaxpu=1.05 enabled=no
New Generator.op8500_pv_0145 phases=1 bus1=sx2897781a.2 conn=wye kv=0.12 kW=0.29346126584279258 kvar=0 kVA=0.29346126584279258 Model=1 Status=Fixed Vminpu=0.88 Vmaxpu=1.05 enabled=no
New Generator.op8500_pv_0146 phases=1 bus1=sx3197644a.1 conn=wye kv=0.12 kW=0.06813947230003313 kvar=0 kVA=0.06813947230003313 Model=1 Status=Fixed Vminpu=0.88 Vmaxpu=1.05 enabled=no
New Generator.op8500_pv_0147 phases=1 bus1=sx3197644a.2 conn=wye kv=0.12 kW=0.56243680196520252 kvar=0 kVA=0.56243680196520252 Model=1 Status=Fixed Vminpu=0.88 Vmaxpu=1.05 enabled=no
New Generator.op8500_pv_0148 phases=1 bus1=sx3010566c.1 conn=wye kv=0.12 kW=0.18686368371602202 kvar=0 kVA=0.18686368371602202 Model=1 Status=Fixed Vminpu=0.88 Vmaxpu=1.05 enabled=no
New Generator.op8500_pv_0149 phases=1 bus1=sx3010566c.2 conn=wye kv=0.12 kW=0.53616550294148468 kvar=0 kVA=0.53616550294148468 Model=1 Status=Fixed Vminpu=0.88 Vmaxpu=1.05 enabled=no
New Generator.op8500_pv_0150 phases=1 bus1=sx3236011b.1 conn=wye kv=0.12 kW=0.3767607339482551 kvar=0 kVA=0.3767607339482551 Model=1 Status=Fixed Vminpu=0.88 Vmaxpu=1.05 enabled=no
New Generator.op8500_pv_0151 phases=1 bus1=sx3236011b.2 conn=wye kv=0.12 kW=0.31545081524516116 kvar=0 kVA=0.31545081524516116 Model=1 Status=Fixed Vminpu=0.88 Vmaxpu=1.05 enabled=no
New Generator.op8500_pv_0152 phases=1 bus1=sx3198358b.1 conn=wye kv=0.12 kW=0.2823448696078168 kvar=0 kVA=0.2823448696078168 Model=1 Status=Fixed Vminpu=0.88 Vmaxpu=1.05 enabled=no
New Generator.op8500_pv_0153 phases=1 bus1=sx3198358b.2 conn=wye kv=0.12 kW=1.4469987096271097 kvar=0 kVA=1.4469987096271097 Model=1 Status=Fixed Vminpu=0.88 Vmaxpu=1.05 enabled=no
New Generator.op8500_pv_0154 phases=1 bus1=sx3104859b.1 conn=wye kv=0.12 kW=0.56368036645441966 kvar=0 kVA=0.56368036645441966 Model=1 Status=Fixed Vminpu=0.88 Vmaxpu=1.05 enabled=no
New Generator.op8500_pv_0155 phases=1 bus1=sx3104859b.2 conn=wye kv=0.12 kW=0.12853118273899652 kvar=0 kVA=0.12853118273899652 Model=1 Status=Fixed Vminpu=0.88 Vmaxpu=1.05 enabled=no
New Generator.op8500_pv_0156 phases=1 bus1=sx2936275b.1 conn=wye kv=0.12 kW=0.24191828194972589 kvar=0 kVA=0.24191828194972589 Model=1 Status=Fixed Vminpu=0.88 Vmaxpu=1.05 enabled=no
New Generator.op8500_pv_0157 phases=1 bus1=sx2936275b.2 conn=wye kv=0.12 kW=0.219160986263012 kvar=0 kVA=0.219160986263012 Model=1 Status=Fixed Vminpu=0.88 Vmaxpu=1.05 enabled=no
New Generator.op8500_pv_0158 phases=1 bus1=sx3179674b.1 conn=wye kv=0.12 kW=0.96940788294104896 kvar=0 kVA=0.96940788294104896 Model=1 Status=Fixed Vminpu=0.88 Vmaxpu=1.05 enabled=no
New Generator.op8500_pv_0159 phases=1 bus1=sx3179674b.2 conn=wye kv=0.12 kW=0.18388293446510526 kvar=0 kVA=0.18388293446510526 Model=1 Status=Fixed Vminpu=0.88 Vmaxpu=1.05 enabled=no
New Generator.op8500_pv_0160 phases=1 bus1=sx2748840b.1 conn=wye kv=0.12 kW=0.1658105671264877 kvar=0 kVA=0.1658105671264877 Model=1 Status=Fixed Vminpu=0.88 Vmaxpu=1.05 enabled=no
New Generator.op8500_pv_0161 phases=1 bus1=sx2748840b.2 conn=wye kv=0.12 kW=0.52640098206692854 kvar=0 kVA=0.52640098206692854 Model=1 Status=Fixed Vminpu=0.88 Vmaxpu=1.05 enabled=no
New Generator.op8500_pv_0162 phases=1 bus1=sx3142099b.1 conn=wye kv=0.12 kW=1.0843740371137309 kvar=0 kVA=1.0843740371137309 Model=1 Status=Fixed Vminpu=0.88 Vmaxpu=1.05 enabled=no
New Generator.op8500_pv_0163 phases=1 bus1=sx3142099b.2 conn=wye kv=0.12 kW=0.068916780292423915 kvar=0 kVA=0.068916780292423915 Model=1 Status=Fixed Vminpu=0.88 Vmaxpu=1.05 enabled=no
New Generator.op8500_pv_0164 phases=1 bus1=sx3011298c.1 conn=wye kv=0.12 kW=0.1604961377758865 kvar=0 kVA=0.1604961377758865 Model=1 Status=Fixed Vminpu=0.88 Vmaxpu=1.05 enabled=no
New Generator.op8500_pv_0165 phases=1 bus1=sx3011298c.2 conn=wye kv=0.12 kW=0.32191841791199094 kvar=0 kVA=0.32191841791199094 Model=1 Status=Fixed Vminpu=0.88 Vmaxpu=1.05 enabled=no
New Generator.op8500_pv_0166 phases=1 bus1=sx2711234b.1 conn=wye kv=0.12 kW=0.12586979175327467 kvar=0 kVA=0.12586979175327467 Model=1 Status=Fixed Vminpu=0.88 Vmaxpu=1.05 enabled=no
New Generator.op8500_pv_0167 phases=1 bus1=sx2711234b.2 conn=wye kv=0.12 kW=1.0274210256528793 kvar=0 kVA=1.0274210256528793 Model=1 Status=Fixed Vminpu=0.88 Vmaxpu=1.05 enabled=no
New Generator.op8500_pv_0168 phases=1 bus1=sx3198355b.1 conn=wye kv=0.12 kW=0.27937331038049112 kvar=0 kVA=0.27937331038049112 Model=1 Status=Fixed Vminpu=0.88 Vmaxpu=1.05 enabled=no
New Generator.op8500_pv_0169 phases=1 bus1=sx3198355b.2 conn=wye kv=0.12 kW=0.18170595783224677 kvar=0 kVA=0.18170595783224677 Model=1 Status=Fixed Vminpu=0.88 Vmaxpu=1.05 enabled=no
New Generator.op8500_pv_0170 phases=1 bus1=sx2879773a.1 conn=wye kv=0.12 kW=0.60428046088185039 kvar=0 kVA=0.60428046088185039 Model=1 Status=Fixed Vminpu=0.88 Vmaxpu=1.05 enabled=no
New Generator.op8500_pv_0171 phases=1 bus1=sx2879773a.2 conn=wye kv=0.12 kW=0.44707509414308161 kvar=0 kVA=0.44707509414308161 Model=1 Status=Fixed Vminpu=0.88 Vmaxpu=1.05 enabled=no
New Generator.op8500_pv_0172 phases=1 bus1=sx2786274c.1 conn=wye kv=0.12 kW=0.57645069218164657 kvar=0 kVA=0.57645069218164657 Model=1 Status=Fixed Vminpu=0.88 Vmaxpu=1.05 enabled=no
New Generator.op8500_pv_0173 phases=1 bus1=sx2786274c.2 conn=wye kv=0.12 kW=0.62899305016373752 kvar=0 kVA=0.62899305016373752 Model=1 Status=Fixed Vminpu=0.88 Vmaxpu=1.05 enabled=no
New Generator.op8500_pv_0174 phases=1 bus1=sx3179682c.1 conn=wye kv=0.12 kW=0.56062557096223065 kvar=0 kVA=0.56062557096223065 Model=1 Status=Fixed Vminpu=0.88 Vmaxpu=1.05 enabled=no
New Generator.op8500_pv_0175 phases=1 bus1=sx3179682c.2 conn=wye kv=0.12 kW=0.16240361569527609 kvar=0 kVA=0.16240361569527609 Model=1 Status=Fixed Vminpu=0.88 Vmaxpu=1.05 enabled=no
New Generator.op8500_pv_0176 phases=1 bus1=sx2936270a.1 conn=wye kv=0.12 kW=0.57701318464429519 kvar=0 kVA=0.57701318464429519 Model=1 Status=Fixed Vminpu=0.88 Vmaxpu=1.05 enabled=no
New Generator.op8500_pv_0177 phases=1 bus1=sx2936270a.2 conn=wye kv=0.12 kW=0.4743423703806367 kvar=0 kVA=0.4743423703806367 Model=1 Status=Fixed Vminpu=0.88 Vmaxpu=1.05 enabled=no
New Generator.op8500_pv_0178 phases=1 bus1=sx3086078a.1 conn=wye kv=0.12 kW=0.1798486055287665 kvar=0 kVA=0.1798486055287665 Model=1 Status=Fixed Vminpu=0.88 Vmaxpu=1.05 enabled=no
New Generator.op8500_pv_0179 phases=1 bus1=sx3086078a.2 conn=wye kv=0.12 kW=0.87150694949616536 kvar=0 kVA=0.87150694949616536 Model=1 Status=Fixed Vminpu=0.88 Vmaxpu=1.05 enabled=no
New Generator.op8500_pv_0180 phases=1 bus1=sx3217056a.1 conn=wye kv=0.12 kW=1.3965337559830715 kvar=0 kVA=1.3965337559830715 Model=1 Status=Fixed Vminpu=0.88 Vmaxpu=1.05 enabled=no
New Generator.op8500_pv_0181 phases=1 bus1=sx3217056a.2 conn=wye kv=0.12 kW=0.7061773540667946 kvar=0 kVA=0.7061773540667946 Model=1 Status=Fixed Vminpu=0.88 Vmaxpu=1.05 enabled=no
New Generator.op8500_pv_0182 phases=1 bus1=sx3217057a.1 conn=wye kv=0.12 kW=0.22846909720560765 kvar=0 kVA=0.22846909720560765 Model=1 Status=Fixed Vminpu=0.88 Vmaxpu=1.05 enabled=no
New Generator.op8500_pv_0183 phases=1 bus1=sx3217057a.2 conn=wye kv=0.12 kW=0.19231018355408888 kvar=0 kVA=0.19231018355408888 Model=1 Status=Fixed Vminpu=0.88 Vmaxpu=1.05 enabled=no
New Generator.op8500_pv_0184 phases=1 bus1=sx2936268c.1 conn=wye kv=0.12 kW=0.37580377088553496 kvar=0 kVA=0.37580377088553496 Model=1 Status=Fixed Vminpu=0.88 Vmaxpu=1.05 enabled=no
New Generator.op8500_pv_0185 phases=1 bus1=sx2936268c.2 conn=wye kv=0.12 kW=0.34722541577197169 kvar=0 kVA=0.34722541577197169 Model=1 Status=Fixed Vminpu=0.88 Vmaxpu=1.05 enabled=no
New Generator.op8500_pv_0186 phases=1 bus1=sx2823592a.1 conn=wye kv=0.12 kW=0.14417528458499607 kvar=0 kVA=0.14417528458499607 Model=1 Status=Fixed Vminpu=0.88 Vmaxpu=1.05 enabled=no
New Generator.op8500_pv_0187 phases=1 bus1=sx2823592a.2 conn=wye kv=0.12 kW=0.065621708920543226 kvar=0 kVA=0.065621708920543226 Model=1 Status=Fixed Vminpu=0.88 Vmaxpu=1.05 enabled=no
New Generator.op8500_pv_0188 phases=1 bus1=sx3160863c.1 conn=wye kv=0.12 kW=0.057006607214972374 kvar=0 kVA=0.057006607214972374 Model=1 Status=Fixed Vminpu=0.88 Vmaxpu=1.05 enabled=no
New Generator.op8500_pv_0189 phases=1 bus1=sx3160863c.2 conn=wye kv=0.12 kW=0.66602257944253462 kvar=0 kVA=0.66602257944253462 Model=1 Status=Fixed Vminpu=0.88 Vmaxpu=1.05 enabled=no
New Generator.op8500_pv_0190 phases=1 bus1=sx2730108c.1 conn=wye kv=0.12 kW=0.47684197406721673 kvar=0 kVA=0.47684197406721673 Model=1 Status=Fixed Vminpu=0.88 Vmaxpu=1.05 enabled=no
New Generator.op8500_pv_0191 phases=1 bus1=sx2730108c.2 conn=wye kv=0.12 kW=0.24618721259028994 kvar=0 kVA=0.24618721259028994 Model=1 Status=Fixed Vminpu=0.88 Vmaxpu=1.05 enabled=no
New Generator.op8500_pv_0192 phases=1 bus1=sx2786204c.1 conn=wye kv=0.12 kW=0.61200801599486299 kvar=0 kVA=0.61200801599486299 Model=1 Status=Fixed Vminpu=0.88 Vmaxpu=1.05 enabled=no
New Generator.op8500_pv_0193 phases=1 bus1=sx2786204c.2 conn=wye kv=0.12 kW=1.1967502443975262 kvar=0 kVA=1.1967502443975262 Model=1 Status=Fixed Vminpu=0.88 Vmaxpu=1.05 enabled=no
New Generator.op8500_pv_0194 phases=1 bus1=sx2936216c.1 conn=wye kv=0.12 kW=0.47121728781049965 kvar=0 kVA=0.47121728781049965 Model=1 Status=Fixed Vminpu=0.88 Vmaxpu=1.05 enabled=no
New Generator.op8500_pv_0195 phases=1 bus1=sx2936216c.2 conn=wye kv=0.12 kW=0.011197267877378382 kvar=0 kVA=0.011197267877378382 Model=1 Status=Fixed Vminpu=0.88 Vmaxpu=1.05 enabled=no
New Generator.op8500_pv_0196 phases=1 bus1=sx3029498c.1 conn=wye kv=0.12 kW=0.10807663545986781 kvar=0 kVA=0.10807663545986781 Model=1 Status=Fixed Vminpu=0.88 Vmaxpu=1.05 enabled=no
New Generator.op8500_pv_0197 phases=1 bus1=sx3029498c.2 conn=wye kv=0.12 kW=0.37433792022800938 kvar=0 kVA=0.37433792022800938 Model=1 Status=Fixed Vminpu=0.88 Vmaxpu=1.05 enabled=no
New Generator.op8500_pv_0198 phases=1 bus1=sx2991912a.1 conn=wye kv=0.12 kW=0.27253007609675778 kvar=0 kVA=0.27253007609675778 Model=1 Status=Fixed Vminpu=0.88 Vmaxpu=1.05 enabled=no
New Generator.op8500_pv_0199 phases=1 bus1=sx2991912a.2 conn=wye kv=0.12 kW=0.35804619816847766 kvar=0 kVA=0.35804619816847766 Model=1 Status=Fixed Vminpu=0.88 Vmaxpu=1.05 enabled=no
...
New Load.op8500_aidc01 phases=3 bus1=pcc8500_aidc_aidc01_lv.1.2.3 conn=wye kv=0.48 kW=0 kvar=0 Model=1 Vminpu=0.85 Vmaxpu=1.15 Status=Fixed
New Load.op8500_aidc02 phases=3 bus1=pcc8500_aidc_aidc02_lv.1.2.3 conn=wye kv=0.48 kW=0 kvar=0 Model=1 Vminpu=0.85 Vmaxpu=1.15 Status=Fixed
New Load.op8500_aidc03 phases=3 bus1=pcc8500_aidc_aidc03_lv.1.2.3 conn=wye kv=0.48 kW=0 kvar=0 Model=1 Vminpu=0.85 Vmaxpu=1.15 Status=Fixed
New Load.op8500_aidc04 phases=3 bus1=pcc8500_aidc_aidc04_lv.1.2.3 conn=wye kv=0.48 kW=0 kvar=0 Model=1 Vminpu=0.85 Vmaxpu=1.15 Status=Fixed
New Load.op8500_aidc05 phases=3 bus1=pcc8500_aidc_aidc05_lv.1.2.3 conn=wye kv=0.48 kW=0 kvar=0 Model=1 Vminpu=0.85 Vmaxpu=1.15 Status=Fixed
New Load.op8500_aidc06 phases=3 bus1=pcc8500_aidc_aidc06_lv.1.2.3 conn=wye kv=0.48 kW=0 kvar=0 Model=1 Vminpu=0.85 Vmaxpu=1.15 Status=Fixed
New Load.op8500_aidc07 phases=3 bus1=pcc8500_aidc_aidc07_lv.1.2.3 conn=wye kv=0.48 kW=0 kvar=0 Model=1 Vminpu=0.85 Vmaxpu=1.15 Status=Fixed
New Load.op8500_aidc08 phases=3 bus1=pcc8500_aidc_aidc08_lv.1.2.3 conn=wye kv=0.48 kW=0 kvar=0 Model=1 Vminpu=0.85 Vmaxpu=1.15 Status=Fixed
New Load.op8500_aidc09 phases=3 bus1=pcc8500_aidc_aidc09_lv.1.2.3 conn=wye kv=0.48 kW=0 kvar=0 Model=1 Vminpu=0.85 Vmaxpu=1.15 Status=Fixed
New Load.op8500_aidc10 phases=3 bus1=pcc8500_aidc_aidc10_lv.1.2.3 conn=wye kv=0.48 kW=0 kvar=0 Model=1 Vminpu=0.85 Vmaxpu=1.15 Status=Fixed
New Load.op8500_aidc11 phases=3 bus1=pcc8500_aidc_aidc11_lv.1.2.3 conn=wye kv=0.48 kW=0 kvar=0 Model=1 Vminpu=0.85 Vmaxpu=1.15 Status=Fixed
New Load.op8500_aidc12 phases=3 bus1=pcc8500_aidc_aidc12_lv.1.2.3 conn=wye kv=0.48 kW=0 kvar=0 Model=1 Vminpu=0.85 Vmaxpu=1.15 Status=Fixed
New Load.b0_mess_aidc01 phases=3 bus1=pcc8500_mess_aidc01_lv.1.2.3 conn=wye kv=0.48 kW=0 kvar=0 Model=1 Vminpu=0.85 Vmaxpu=1.15 Status=Fixed
New Load.b0_mess_aidc02 phases=3 bus1=pcc8500_mess_aidc02_lv.1.2.3 conn=wye kv=0.48 kW=0 kvar=0 Model=1 Vminpu=0.85 Vmaxpu=1.15 Status=Fixed
New Load.b0_mess_aidc03 phases=3 bus1=pcc8500_mess_aidc03_lv.1.2.3 conn=wye kv=0.48 kW=0 kvar=0 Model=1 Vminpu=0.85 Vmaxpu=1.15 Status=Fixed
New Load.b0_mess_aidc04 phases=3 bus1=pcc8500_mess_aidc04_lv.1.2.3 conn=wye kv=0.48 kW=0 kvar=0 Model=1 Vminpu=0.85 Vmaxpu=1.15 Status=Fixed
New Load.b0_mess_aidc05 phases=3 bus1=pcc8500_mess_aidc05_lv.1.2.3 conn=wye kv=0.48 kW=0 kvar=0 Model=1 Vminpu=0.85 Vmaxpu=1.15 Status=Fixed
New Load.b0_mess_aidc06 phases=3 bus1=pcc8500_mess_aidc06_lv.1.2.3 conn=wye kv=0.48 kW=0 kvar=0 Model=1 Vminpu=0.85 Vmaxpu=1.15 Status=Fixed
New Load.b0_mess_aidc07 phases=3 bus1=pcc8500_mess_aidc07_lv.1.2.3 conn=wye kv=0.48 kW=0 kvar=0 Model=1 Vminpu=0.85 Vmaxpu=1.15 Status=Fixed
New Load.b0_mess_aidc08 phases=3 bus1=pcc8500_mess_aidc08_lv.1.2.3 conn=wye kv=0.48 kW=0 kvar=0 Model=1 Vminpu=0.85 Vmaxpu=1.15 Status=Fixed
New Load.b0_mess_aidc09 phases=3 bus1=pcc8500_mess_aidc09_lv.1.2.3 conn=wye kv=0.48 kW=0 kvar=0 Model=1 Vminpu=0.85 Vmaxpu=1.15 Status=Fixed
New Load.b0_mess_aidc10 phases=3 bus1=pcc8500_mess_aidc10_lv.1.2.3 conn=wye kv=0.48 kW=0 kvar=0 Model=1 Vminpu=0.85 Vmaxpu=1.15 Status=Fixed
New Load.b0_mess_aidc11 phases=3 bus1=pcc8500_mess_aidc11_lv.1.2.3 conn=wye kv=0.48 kW=0 kvar=0 Model=1 Vminpu=0.85 Vmaxpu=1.15 Status=Fixed
New Load.b0_mess_aidc12 phases=3 bus1=pcc8500_mess_aidc12_lv.1.2.3 conn=wye kv=0.48 kW=0 kvar=0 Model=1 Vminpu=0.85 Vmaxpu=1.15 Status=Fixed
New Load.b0_mess_sta01 phases=3 bus1=pcc8500_mess_sta01_lv.1.2.3 conn=wye kv=0.48 kW=0 kvar=0 Model=1 Vminpu=0.85 Vmaxpu=1.15 Status=Fixed
New Load.b0_mess_sta02 phases=3 bus1=pcc8500_mess_sta02_lv.1.2.3 conn=wye kv=0.48 kW=0 kvar=0 Model=1 Vminpu=0.85 Vmaxpu=1.15 Status=Fixed
New Load.b0_mess_sta03 phases=3 bus1=pcc8500_mess_sta03_lv.1.2.3 conn=wye kv=0.48 kW=0 kvar=0 Model=1 Vminpu=0.85 Vmaxpu=1.15 Status=Fixed
New Load.b0_mess_sta04 phases=3 bus1=pcc8500_mess_sta04_lv.1.2.3 conn=wye kv=0.48 kW=0 kvar=0 Model=1 Vminpu=0.85 Vmaxpu=1.15 Status=Fixed
New Load.b0_mess_sta05 phases=3 bus1=pcc8500_mess_sta05_lv.1.2.3 conn=wye kv=0.48 kW=0 kvar=0 Model=1 Vminpu=0.85 Vmaxpu=1.15 Status=Fixed
New Load.b0_mess_sta06 phases=3 bus1=pcc8500_mess_sta06_lv.1.2.3 conn=wye kv=0.48 kW=0 kvar=0 Model=1 Vminpu=0.85 Vmaxpu=1.15 Status=Fixed
New Load.b0_mess_sta07 phases=3 bus1=pcc8500_mess_sta07_lv.1.2.3 conn=wye kv=0.48 kW=0 kvar=0 Model=1 Vminpu=0.85 Vmaxpu=1.15 Status=Fixed
New Load.b0_mess_sta08 phases=3 bus1=pcc8500_mess_sta08_lv.1.2.3 conn=wye kv=0.48 kW=0 kvar=0 Model=1 Vminpu=0.85 Vmaxpu=1.15 Status=Fixed
New Load.b0_mess_sta09 phases=3 bus1=pcc8500_mess_sta09_lv.1.2.3 conn=wye kv=0.48 kW=0 kvar=0 Model=1 Vminpu=0.85 Vmaxpu=1.15 Status=Fixed
New Load.b0_mess_sta10 phases=3 bus1=pcc8500_mess_sta10_lv.1.2.3 conn=wye kv=0.48 kW=0 kvar=0 Model=1 Vminpu=0.85 Vmaxpu=1.15 Status=Fixed
New Load.b0_mess_sta11 phases=3 bus1=pcc8500_mess_sta11_lv.1.2.3 conn=wye kv=0.48 kW=0 kvar=0 Model=1 Vminpu=0.85 Vmaxpu=1.15 Status=Fixed
New Load.b0_mess_sta12 phases=3 bus1=pcc8500_mess_sta12_lv.1.2.3 conn=wye kv=0.48 kW=0 kvar=0 Model=1 Vminpu=0.85 Vmaxpu=1.15 Status=Fixed
