science/ieee8500_b0_may01_fine_scale/inputs/NATIVE_LOAD_PV_ALLOCATION.csv
load,bus_connection,local_nodes,phases,primary_phase,connection,base_kv,base_kw,base_kvar,base_pf,model,Vminpu,Vmaxpu,status
138236b0a,sx2673305b.1,"[1, 0]",1,B,wye,0.12,0.696180467009544,0.17447927184602238,0.97,1,0.88,1.05,Variable
138236b0b,sx2673305b.2,"[2, 0]",1,B,wye,0.12,3.19381953299046,0.8004466268889721,0.97,1,0.88,1.05,Variable
138237b0a,sx3048196b.1,"[1, 0]",1,B,wye,0.12,2.30339207649231,0.577284470517565,0.97,1,0.88,1.05,Variable
138237b0b,sx3048196b.2,"[2, 0]",1,B,wye,0.12,3.53660792350769,0.8863574957066924,0.97,1,0.88,1.05,Variable
138258c0a,sx2991911c.1,"[1, 0]",1,C,wye,0.12,0.932027059793472,0.23358799972094707,0.97,1,0.88,1.05,Variable
138258c0b,sx2991911c.2,"[2, 0]",1,C,wye,0.12,5.16797294020653,1.2952161088352128,0.97,1,0.88,1.05,Variable
138259c0a,sx2973158c.1,"[1, 0]",1,C,wye,0.12,0.616065526008606,0.15440057496750298,0.97,1,0.88,1.05,Variable
138259c0b,sx2973158c.2,"[2, 0]",1,C,wye,0.12,5.48393447399139,1.3744035335886553,0.97,1,0.88,1.05,Variable
138260a0a,sx3048208a.1,"[1, 0]",1,A,wye,0.12,1.45716053724289,0.36519885510866074,0.97,1,0.88,1.05,Variable
138260a0b,sx3048208a.2,"[2, 0]",1,A,wye,0.12,3.86283946275711,0.9681188264517929,0.97,1,0.88,1.05,Variable
138262a0a,sx3029502a.1,"[1, 0]",1,A,wye,0.12,11.3558540940285,2.8460453106745986,0.97,1,0.88,1.05,Variable
138262a0b,sx3029502a.2,"[2, 0]",1,A,wye,0.12,6.38414590597153,1.600017785355944,0.97,1,0.88,1.05,Variable
138264b0a,sx3104125b.1,"[1, 0]",1,B,wye,0.12,0.721058705449104,0.1807143461312747,0.97,1,0.88,1.05,Variable
138264b0b,sx3104125b.2,"[2, 0]",1,B,wye,0.12,9.0089412945509,2.257853518827977,0.97,1,0.88,1.05,Variable
138265a0a,sx3160107a.1,"[1, 0]",1,A,wye,0.12,5.42583449840546,1.3598423071324615,0.97,1,0.88,1.05,Variable
138265a0b,sx3160107a.2,"[2, 0]",1,A,wye,0.12,3.44416550159454,0.8631892408828062,0.97,1,0.88,1.05,Variable
138294b0a,sx2785516b.1,"[1, 0]",1,B,wye,0.12,0.979905409812927,0.24558744533088686,0.97,1,0.88,1.05,Variable
138294b0b,sx2785516b.2,"[2, 0]",1,B,wye,0.12,4.86009459018707,1.21805452089337,0.97,1,0.88,1.05,Variable
138313a0a,sx3141400a.1,"[1, 0]",1,A,wye,0.12,3.3028557240963,0.8277736722896151,0.97,1,0.88,1.05,Variable
138313a0b,sx3141400a.2,"[2, 0]",1,A,wye,0.12,0.247144275903702,0.06194019416519945,0.97,1,0.88,1.05,Variable
138342c0a,sx2897775c.1,"[1, 0]",1,C,wye,0.12,5.46709477722645,1.3701831077524127,0.97,1,0.88,1.05,Variable
138342c0b,sx2897775c.2,"[2, 0]",1,C,wye,0.12,4.70290522277355,1.1786591519223644,0.97,1,0.88,1.05,Variable
138343c0a,sx3010565c.1,"[1, 0]",1,C,wye,0.12,1.90731858491898,0.478019096549124,0.97,1,0.88,1.05,Variable
138343c0b,sx3010565c.2,"[2, 0]",1,C,wye,0.12,2.16268141508102,0.5420190545694937,0.97,1,0.88,1.05,Variable
138346c0a,sx2916609c.1,"[1, 0]",1,C,wye,0.12,0.640997141599655,0.16064902682791915,0.97,1,0.88,1.05,Variable
138346c0b,sx2916609c.2,"[2, 0]",1,C,wye,0.12,5.45900285840034,1.3681550817282389,0.97,1,0.88,1.05,Variable
138371c0a,sx2879073c.1,"[1, 0]",1,C,wye,0.12,5.15049561262131,1.290835877651792,0.97,1,0.88,1.05,Variable
138371c0b,sx2879073c.2,"[2, 0]",1,C,wye,0.12,0.949504387378693,0.23796823090436803,0.97,1,0.88,1.05,Variable
138372c0a,sx3104126c.1,"[1, 0]",1,C,wye,0.12,3.53355606496334,0.8855926278572933,0.97,1,0.88,1.05,Variable
138372c0b,sx3104126c.2,"[2, 0]",1,C,wye,0.12,0.536443935036659,0.13444552326132422,0.97,1,0.88,1.05,Variable
138373c0a,sx3029503c.1,"[1, 0]",1,C,wye,0.12,3.10627183914185,0.7785051065528454,0.97,1,0.88,1.05,Variable
138373c0b,sx3029503c.2,"[2, 0]",1,C,wye,0.12,2.99372816085815,0.7502990020033138,0.97,1,0.88,1.05,Variable
138374c0a,sx2691950c.1,"[1, 0]",1,C,wye,0.12,1.3819062012434,0.34633834067215485,0.97,1,0.88,1.05,Variable
138374c0b,sx2691950c.2,"[2, 0]",1,C,wye,0.12,8.7880937987566,2.2025039190026225,0.97,1,0.88,1.05,Variable
138379c0a,sx2691951c.1,"[1, 0]",1,C,wye,0.12,5.53433520913124,1.3870351484994838,0.97,1,0.88,1.05,Variable
138379c0b,sx2691951c.2,"[2, 0]",1,C,wye,0.12,4.63566479086876,1.1618071111752934,0.97,1,0.88,1.05,Variable
138380c0a,sx2879076c.1,"[1, 0]",1,C,wye,0.12,2.61281781375408,0.6548338702583539,0.97,1,0.88,1.05,Variable
138380c0b,sx2879076c.2,"[2, 0]",1,C,wye,0.12,1.45718218624592,0.3652042808602638,0.97,1,0.88,1.05,Variable
138404c0a,sx2841630c.1,"[1, 0]",1,C,wye,0.12,8.31935176134109,2.085026090698718,0.97,1,0.88,1.05,Variable
138404c0b,sx2841630c.2,"[2, 0]",1,C,wye,0.12,1.85064823865891,0.46381616897605926,0.97,1,0.88,1.05,Variable
138405c0a,sx2841629c.1,"[1, 0]",1,C,wye,0.12,8.68428897500038,2.176487977847465,0.97,1,0.88,1.05,Variable
138405c0b,sx2841629c.2,"[2, 0]",1,C,wye,0.12,6.57571102499962,1.6480285297864676,0.97,1,0.88,1.05,Variable
138412c0a,sx2785523c.1,"[1, 0]",1,C,wye,0.12,2.53578065633774,0.6355265386567822,0.97,1,0.88,1.05,Variable
138412c0b,sx2785523c.2,"[2, 0]",1,C,wye,0.12,3.56421934366226,0.8932775698993771,0.97,1,0.88,1.05,Variable
138413c0a,sx3216347c.1,"[1, 0]",1,C,wye,0.12,4.66030400395393,1.167982280059916,0.97,1,0.88,1.05,Variable
138413c0b,sx3216347c.2,"[2, 0]",1,C,wye,0.12,1.43969599604607,0.3608218284962433,0.97,1,0.88,1.05,Variable
138416c0a,sx3141388c.1,"[1, 0]",1,C,wye,0.12,2.00353498935699,0.5021332005516372,0.97,1,0.88,1.05,Variable
138416c0b,sx3141388c.2,"[2, 0]",1,C,wye,0.12,2.06646501064301,0.5179049505669805,0.97,1,0.88,1.05,Variable
138464c0a,sx3066801c.1,"[1, 0]",1,C,wye,0.12,2.74935719311237,0.6890538643801019,0.97,1,0.88,1.05,Variable
138464c0b,sx3066801c.2,"[2, 0]",1,C,wye,0.12,1.32064280688763,0.33098428673851593,0.97,1,0.88,1.05,Variable
138465c0a,sx2879055c.1,"[1, 0]",1,C,wye,0.12,3.90297761797905,0.9781783963883777,0.97,1,0.88,1.05,Variable
138465c0b,sx2879055c.2,"[2, 0]",1,C,wye,0.12,0.16702238202095,0.041859754730240124,0.97,1,0.88,1.05,Variable
138466c0a,sx2973144c.1,"[1, 0]",1,C,wye,0.12,8.10096781075001,2.0302939135009526,0.97,1,0.88,1.05,Variable
138466c0b,sx2973144c.2,"[2, 0]",1,C,wye,0.12,2.06903218924999,0.5185483461738245,0.97,1,0.88,1.05,Variable
138469c0a,sx2785518c.1,"[1, 0]",1,C,wye,0.12,4.01072108745575,1.0051814552090457,0.97,1,0.88,1.05,Variable
138469c0b,sx2785518c.2,"[2, 0]",1,C,wye,0.12,2.08927891254425,0.5236226533471138,0.97,1,0.88,1.05,Variable
138470c0a,sx2766717c.1,"[1, 0]",1,C,wye,0.12,2.60895431101322,0.65386558519874,0.97,1,0.88,1.05,Variable
138470c0b,sx2766717c.2,"[2, 0]",1,C,wye,0.12,1.46104568898678,0.3661725659198777,0.97,1,0.88,1.05,Variable
138472c0a,sx2673309c.1,"[1, 0]",1,C,wye,0.12,9.44700153708458,2.3676417644969274,0.97,1,0.88,1.05,Variable
138472c0b,sx2673309c.2,"[2, 0]",1,C,wye,0.12,0.72299846291542,0.18120049517784953,0.97,1,0.88,1.05,Variable
138560a0a,sx3104113a.1,"[1, 0]",1,A,wye,0.12,4.76630929410458,1.194549710078113,0.97,1,0.88,1.05,Variable
138560a0b,sx3104113a.2,"[2, 0]",1,A,wye,0.12,4.10369070589542,1.0284818379371548,0.97,1,0.88,1.05,Variable
138561a0a,sx3104121a.1,"[1, 0]",1,A,wye,0.12,6.50350156784058,1.6299311339206726,0.97,1,0.88,1.05,Variable
138561a0b,sx3104121a.2,"[2, 0]",1,A,wye,0.12,2.36649843215942,0.5931004140945951,0.97,1,0.88,1.05,Variable
138562a0a,sx2673310a.1,"[1, 0]",1,A,wye,0.12,6.82647125542164,1.7108749675785453,0.97,1,0.88,1.05,Variable
138562a0b,sx2673310a.2,"[2, 0]",1,A,wye,0.12,2.04352874457836,0.5121565804367225,0.97,1,0.88,1.05,Variable
138563a0a,sx2916627a.1,"[1, 0]",1,A,wye,0.12,6.43954766631126,1.6139027753278494,0.97,1,0.88,1.05,Variable
138563a0b,sx2916627a.2,"[2, 0]",1,A,wye,0.12,2.43045233368874,0.6091287726874183,0.97,1,0.88,1.05,Variable
138564a0a,sx2804283a.1,"[1, 0]",1,A,wye,0.12,7.51748701274395,1.8840598411640197,0.97,1,0.88,1.05,Variable
138564a0b,sx2804283a.2,"[2, 0]",1,A,wye,0.12,1.35251298725605,0.3389717068512481,0.97,1,0.88,1.05,Variable
138565a0a,sx3104122a.1,"[1, 0]",1,A,wye,0.12,8.4127882361412,2.108443478659933,0.97,1,0.88,1.05,Variable
138565a0b,sx3104122a.2,"[2, 0]",1,A,wye,0.12,0.457211763858796,0.11458806935533375,0.97,1,0.88,1.05,Variable
138566a0a,sx2785519a.1,"[1, 0]",1,A,wye,0.12,8.3076517778635,2.0820937984346886,0.97,1,0.88,1.05,Variable
138566a0b,sx2785519a.2,"[2, 0]",1,A,wye,0.12,0.562348222136498,0.14093774958057867,0.97,1,0.88,1.05,Variable
138567a0a,sx2748129a.1,"[1, 0]",1,A,wye,0.12,0.489392793178558,0.12265339555887773,0.97,1,0.88,1.05,Variable
138567a0b,sx2748129a.2,"[2, 0]",1,A,wye,0.12,12.8106072068214,3.210640808342246,0.97,1,0.88,1.05,Variable
138569a0a,sx2973151a.1,"[1, 0]",1,A,wye,0.12,3.8825451207161,0.9730575298697448,0.97,1,0.88,1.05,Variable
138569a0b,sx2973151a.2,"[2, 0]",1,A,wye,0.12,1.43745487928391,0.3602601516907114,0.97,1,0.88,1.05,Variable
138570a0a,sx2748146a.1,"[1, 0]",1,A,wye,0.12,0.57196382522583,0.14334764687717147,0.97,1,0.88,1.05,Variable
138570a0b,sx2748146a.2,"[2, 0]",1,A,wye,0.12,4.74803617477417,1.1899700346832822,0.97,1,0.88,1.05,Variable
138571a0a,sx2991913a.1,"[1, 0]",1,A,wye,0.12,1.55185956716537,0.38893266921059033,0.97,1,0.88,1.05,Variable
138571a0b,sx2991913a.2,"[2, 0]",1,A,wye,0.12,3.76814043283463,0.9443850123498635,0.97,1,0.88,1.05,Variable
138573a0a,sx3235253a.1,"[1, 0]",1,A,wye,0.12,6.42777684092522,1.6109527284079683,0.97,1,0.88,1.05,Variable
138573a0b,sx3235253a.2,"[2, 0]",1,A,wye,0.12,2.44222315907478,0.6120788196072994,0.97,1,0.88,1.05,Variable
138574a0a,sx2991907a.1,"[1, 0]",1,A,wye,0.12,5.82470866858959,1.4598095973249905,0.97,1,0.88,1.05,Variable
138574a0b,sx2991907a.2,"[2, 0]",1,A,wye,0.12,3.04529133141041,0.7632219506902773,0.97,1,0.88,1.05,Variable
138581a0a,sx2879064a.1,"[1, 0]",1,A,wye,0.12,5.37039572954178,1.3459480419501517,0.97,1,0.88,1.05,Variable
138581a0b,sx2879064a.2,"[2, 0]",1,A,wye,0.12,3.49960427045822,0.877083506065116,0.97,1,0.88,1.05,Variable
138585c0a,sx3197637c.1,"[1, 0]",1,C,wye,0.12,0.863561273217201,0.21642885614499097,0.97,1,0.88,1.05,Variable
138585c0b,sx3197637c.2,"[2, 0]",1,C,wye,0.12,3.2064387267828,0.8036092949736271,0.97,1,0.88,1.05,Variable
138586c0a,sx2860487c.1,"[1, 0]",1,C,wye,0.12,5.91896427869797,1.4834322799460002,0.97,1,0.88,1.05,Variable
138586c0b,sx2860487c.2,"[2, 0]",1,C,wye,0.12,0.181035721302033,0.045371828610159974,0.97,1,0.88,1.05,Variable
138641c0a,sx2841638c.1,"[1, 0]",1,C,wye,0.12,0.905626183748245,0.22697131648038563,0.97,1,0.88,1.05,Variable
138641c0b,sx2841638c.2,"[2, 0]",1,C,wye,0.12,5.19437381625175,1.3018327920757726,0.97,1,0.88,1.05,Variable
138642a0a,sx3235256a.1,"[1, 0]",1,A,wye,0.12,3.69108180999756,0.92507230100675,0.97,1,0.88,1.05,Variable
138642a0b,sx3235256a.2,"[2, 0]",1,A,wye,0.12,1.62891819000244,0.4082453805537038,0.97,1,0.88,1.05,Variable
138644a0a,sx3197630a.1,"[1, 0]",1,A,wye,0.12,4.48774401962757,1.124734671369666,0.97,1,0.88,1.05,Variable
138644a0b,sx3197630a.2,"[2, 0]",1,A,wye,0.12,4.38225598037243,1.0982968766456018,0.97,1,0.88,1.05,Variable
138645b0a,sx3104120b.1,"[1, 0]",1,B,wye,0.12,3.86900570869446,0.9696642333572665,0.97,1,0.88,1.05,Variable
138645b0b,sx3104120b.2,"[2, 0]",1,B,wye,0.12,1.97099429130554,0.49397773286699104,0.97,1,0.88,1.05,Variable
138646a0a,sx2804251a.1,"[1, 0]",1,A,wye,0.12,2.13520937860012,0.5351339132182799,0.97,1,0.88,1.05,Variable
138646a0b,sx2804251a.2,"[2, 0]",1,A,wye,0.12,1.41479062139988,0.35457995323653413,0.97,1,0.88,1.05,Variable
138647c0a,sx3254210c.1,"[1, 0]",1,C,wye,0.12,6.07667944431305,1.522959426367959,0.97,1,0.88,1.05,Variable
138647c0b,sx3254210c.2,"[2, 0]",1,C,wye,0.12,0.0233205556869507,0.005844682188200482,0.97,1,0.88,1.05,Variable
138649a0a,sx3048206a.1,"[1, 0]",1,A,wye,0.12,7.67008161604404,1.922303653699868,0.97,1,0.88,1.05,Variable
138649a0b,sx3048206a.2,"[2, 0]",1,A,wye,0.12,1.19991838395596,0.30072789431539976,0.97,1,0.88,1.05,Variable
138650c0a,sx2710510c.1,"[1, 0]",1,C,wye,0.12,0.156969414949417,0.03934024368726644,0.97,1,0.88,1.05,Variable
138650c0b,sx2710510c.2,"[2, 0]",1,C,wye,0.12,3.91303058505058,0.9806979074313505,0.97,1,0.88,1.05,Variable
138651c0a,sx3197628c.1,"[1, 0]",1,C,wye,0.12,3.72313893377781,0.9331065735549039,0.97,1,0.88,1.05,Variable
138651c0b,sx3197628c.2,"[2, 0]",1,C,wye,0.12,6.44686106622219,1.615735686119873,0.97,1,0.88,1.05,Variable
138652c0a,sx2766718c.1,"[1, 0]",1,C,wye,0.12,4.17881947517395,1.0473108823869555,0.97,1,0.88,1.05,Variable
138652c0b,sx2766718c.2,"[2, 0]",1,C,wye,0.12,11.081180524826,2.777205625246965,0.97,1,0.88,1.05,Variable
138655a0a,sx3010556a.1,"[1, 0]",1,A,wye,0.12,3.01712541341782,0.7561629062397318,0.97,1,0.88,1.05,Variable
138655a0b,sx3010556a.2,"[2, 0]",1,A,wye,0.12,2.30287458658218,0.5771547753207219,0.97,1,0.88,1.05,Variable
138679a0a,sx2710520a.1,"[1, 0]",1,A,wye,0.12,3.05977079868317,0.7668508472568839,0.97,1,0.88,1.05,Variable
138679a0b,sx2710520a.2,"[2, 0]",1,A,wye,0.12,2.26022920131683,0.5664668343035699,0.97,1,0.88,1.05,Variable
138680a0a,sx2710521a.1,"[1, 0]",1,A,wye,0.12,0.664908358454704,0.16664174265883328,0.97,1,0.88,1.05,Variable
138680a0b,sx2710521a.2,"[2, 0]",1,A,wye,0.12,8.20509164154529,2.056389805356433,0.97,1,0.88,1.05,Variable
138684a0a,sx3085396a.1,"[1, 0]",1,A,wye,0.12,3.91537283182144,0.9812849298061936,0.97,1,0.88,1.05,Variable
138684a0b,sx3085396a.2,"[2, 0]",1,A,wye,0.12,4.95462716817856,1.2417466182090742,0.97,1,0.88,1.05,Variable
138685a0a,sx3122813a.1,"[1, 0]",1,A,wye,0.12,2.29734759092331,0.57576957963691,0.97,1,0.88,1.05,Variable
138685a0b,sx3122813a.2,"[2, 0]",1,A,wye,0.12,3.02265240907669,0.7575481019235437,0.97,1,0.88,1.05,Variable
138716c0a,sx3254219c.1,"[1, 0]",1,C,wye,0.12,1.3092828977108,0.3281372251282926,0.97,1,0.88,1.05,Variable
138716c0b,sx3254219c.2,"[2, 0]",1,C,wye,0.12,8.8607171022892,2.2207050345464845,0.97,1,0.88,1.05,Variable
138717c0a,sx3254220c.1,"[1, 0]",1,C,wye,0.12,2.24819816172123,0.5634515715553805,0.97,1,0.88,1.05,Variable
138717c0b,sx3254220c.2,"[2, 0]",1,C,wye,0.12,7.92180183827877,1.9853906881193966,0.97,1,0.88,1.05,Variable
138718c0a,sx3104134c.1,"[1, 0]",1,C,wye,0.12,8.46614170074463,2.121815117330659,0.97,1,0.88,1.05,Variable
138718c0b,sx3104134c.2,"[2, 0]",1,C,wye,0.12,1.70385829925537,0.427027142344118,0.97,1,0.88,1.05,Variable
138719a0a,sx2860490a.1,"[1, 0]",1,A,wye,0.12,0.183259337544441,0.04592911937200351,0.97,1,0.88,1.05,Variable
138719a0b,sx2860490a.2,"[2, 0]",1,A,wye,0.12,8.68674066245556,2.177102428643264,0.97,1,0.88,1.05,Variable
138720a0a,sx3254218a.1,"[1, 0]",1,A,wye,0.12,2.89486701369286,0.7255220629930071,0.97,1,0.88,1.05,Variable
138720a0b,sx3254218a.2,"[2, 0]",1,A,wye,0.12,5.97513298630714,1.4975094850222606,0.97,1,0.88,1.05,Variable
138751b0a,sx3066818b.1,"[1, 0]",1,B,wye,0.12,9.59230809271336,2.4040590201109313,0.97,1,0.88,1.05,Variable
138751b0b,sx3066818b.2,"[2, 0]",1,B,wye,0.12,0.137691907286644,0.03450884484832051,0.97,1,0.88,1.05,Variable
138752b0a,sx2785528b.1,"[1, 0]",1,B,wye,0.12,4.17620378494263,1.046655328620996,0.97,1,0.88,1.05,Variable
138752b0b,sx2785528b.2,"[2, 0]",1,B,wye,0.12,1.66379621505737,0.4169866376032614,0.97,1,0.88,1.05,Variable
138753b0a,sx2748130b.1,"[1, 0]",1,B,wye,0.12,0.89254738509655,0.22369346056010855,0.97,1,0.88,1.05,Variable
138753b0b,sx2748130b.2,"[2, 0]",1,B,wye,0.12,8.83745261490345,2.214874404399142,0.97,1,0.88,1.05,Variable
138754b0a,sx3254212b.1,"[1, 0]",1,B,wye,0.12,3.00803367257118,0.7538843011970644,0.97,1,0.88,1.05,Variable
138754b0b,sx3254212b.2,"[2, 0]",1,B,wye,0.12,11.5819663274288,2.9027143781200397,0.97,1,0.88,1.05,Variable
138755b0a,sx2785520b.1,"[1, 0]",1,B,wye,0.12,1.23461380779743,0.3094233871870288,0.97,1,0.88,1.05,Variable
138755b0b,sx2785520b.2,"[2, 0]",1,B,wye,0.12,2.65538619220257,0.6655025115479646,0.97,1,0.88,1.05,Variable
138769a0a,sx2729411a.1,"[1, 0]",1,A,wye,0.12,0.204705214500427,0.05130396278215126,0.97,1,0.88,1.05,Variable
138769a0b,sx2729411a.2,"[2, 0]",1,A,wye,0.12,3.34529478549957,0.838409903672662,0.97,1,0.88,1.05,Variable
138770a0a,sx2897781a.1,"[1, 0]",1,A,wye,0.12,1.07414735853672,0.26920670408617764,0.97,1,0.88,1.05,Variable
138770a0b,sx2897781a.2,"[2, 0]",1,A,wye,0.12,2.47585264146328,0.6205071623686365,0.97,1,0.88,1.05,Variable
138771a0a,sx3197644a.1,"[1, 0]",1,A,wye,0.12,0.574874138832092,0.14407704022117807,0.97,1,0.88,1.05,Variable
138771a0b,sx3197644a.2,"[2, 0]",1,A,wye,0.12,4.74512586116791,1.1892406413392762,0.97,1,0.88,1.05,Variable
138776c0a,sx3010566c.1,"[1, 0]",1,C,wye,0.12,1.57651792168617,0.3951126353911859,0.97,1,0.88,1.05,Variable
138776c0b,sx3010566c.2,"[2, 0]",1,C,wye,0.12,4.52348207831383,1.1336914731649734,0.97,1,0.88,1.05,Variable
138796b0a,sx3236011b.1,"[1, 0]",1,B,wye,0.12,3.17862752914429,0.796639151823853,0.97,1,0.88,1.05,Variable
138796b0b,sx3236011b.2,"[2, 0]",1,B,wye,0.12,2.66137247085571,0.6670028144004044,0.97,1,0.88,1.05,Variable
138797b0a,sx3198358b.1,"[1, 0]",1,B,wye,0.12,2.38206663906574,0.5970021745341418,0.97,1,0.88,1.05,Variable
138797b0b,sx3198358b.2,"[2, 0]",1,B,wye,0.12,12.2079333609343,3.059596504782977,0.97,1,0.88,1.05,Variable
138798b0a,sx3104859b.1,"[1, 0]",1,B,wye,0.12,4.75561747550964,1.1918700877509192,0.97,1,0.88,1.05,Variable
138798b0b,sx3104859b.2,"[2, 0]",1,B,wye,0.12,1.08438252449036,0.2717718784733381,0.97,1,0.88,1.05,Variable
157715b0a,sx2936275b.1,"[1, 0]",1,B,wye,0.12,2.04099854767323,0.5115224533180308,0.97,1,0.88,1.05,Variable
157715b0b,sx2936275b.2,"[2, 0]",1,B,wye,0.12,1.84900145232677,0.46340344541696254,0.97,1,0.88,1.05,Variable
157716b0a,sx3179674b.1,"[1, 0]",1,B,wye,0.12,8.17862984657288,2.0497578543935493,0.97,1,0.88,1.05,Variable
157716b0b,sx3179674b.2,"[2, 0]",1,B,wye,0.12,1.55137015342712,0.3888100105657017,0.97,1,0.88,1.05,Variable
157717b0a,sx2748840b.1,"[1, 0]",1,B,wye,0.12,1.39889852046967,0.3505970173028138,0.97,1,0.88,1.05,Variable
157717b0b,sx2748840b.2,"[2, 0]",1,B,wye,0.12,4.44110147953033,1.1130449489214436,0.97,1,0.88,1.05,Variable
157718b0a,sx3142099b.1,"[1, 0]",1,B,wye,0.12,9.14856792569161,2.292847251180727,0.97,1,0.88,1.05,Variable
157718b0b,sx3142099b.2,"[2, 0]",1,B,wye,0.12,0.581432074308395,0.14572061377852533,0.97,1,0.88,1.05,Variable
207286c0a,sx3011298c.1,"[1, 0]",1,C,wye,0.12,1.35406212985516,0.33935995858407747,0.97,1,0.88,1.05,Variable
207286c0b,sx3011298c.2,"[2, 0]",1,C,wye,0.12,2.71593787014484,0.6806781925345403,0.97,1,0.88,1.05,Variable
207287b0a,sx2711234b.1,"[1, 0]",1,B,wye,0.12,1.06192909479141,0.26614451854302146,0.97,1,0.88,1.05,Variable
207287b0b,sx2711234b.2,"[2, 0]",1,B,wye,0.12,8.66807090520859,2.1724233464162293,0.97,1,0.88,1.05,Variable
207288b0a,sx3198355b.1,"[1, 0]",1,B,wye,0.12,2.35699640452862,0.5907189814910573,0.97,1,0.88,1.05,Variable
207288b0b,sx3198355b.2,"[2, 0]",1,B,wye,0.12,1.53300359547138,0.38420691724393613,0.97,1,0.88,1.05,Variable
207290a0a,sx2879773a.1,"[1, 0]",1,A,wye,0.12,5.09814939618111,1.2777166791663581,0.97,1,0.88,1.05,Variable
207290a0b,sx2879773a.2,"[2, 0]",1,A,wye,0.12,3.77185060381889,0.9453148688489098,0.97,1,0.88,1.05,Variable
207291c0a,sx2786274c.1,"[1, 0]",1,C,wye,0.12,4.86335722982883,1.218872215465347,0.97,1,0.88,1.05,Variable
207291c0b,sx2786274c.2,"[2, 0]",1,C,wye,0.12,5.30664277017117,1.32997004420943,0.97,1,0.88,1.05,Variable
207292c0a,sx3179682c.1,"[1, 0]",1,C,wye,0.12,4.72984499931335,1.1854108963580416,0.97,1,0.88,1.05,Variable
207292c0b,sx3179682c.2,"[2, 0]",1,C,wye,0.12,1.37015500068665,0.3433932121981177,0.97,1,0.88,1.05,Variable
218472a0a,sx2936270a.1,"[1, 0]",1,A,wye,0.12,4.868102825284,1.220061573798037,0.97,1,0.88,1.05,Variable
218472a0b,sx2936270a.2,"[2, 0]",1,A,wye,0.12,4.001897174716,1.0029699742172307,0.97,1,0.88,1.05,Variable
218473a0a,sx3086078a.1,"[1, 0]",1,A,wye,0.12,1.51733362078667,0.3802796513949269,0.97,1,0.88,1.05,Variable
218473a0b,sx3086078a.2,"[2, 0]",1,A,wye,0.12,7.35266637921333,1.842751896620341,0.97,1,0.88,1.05,Variable
218474a0a,sx3217056a.1,"[1, 0]",1,A,wye,0.12,11.7821743142605,2.9528912294043117,0.97,1,0.88,1.05,Variable
218474a0b,sx3217056a.2,"[2, 0]",1,A,wye,0.12,5.95782568573952,1.4931718666262288,0.97,1,0.88,1.05,Variable
218475a0a,sx3217057a.1,"[1, 0]",1,A,wye,0.12,1.9275314450264,0.48308491680779525,0.97,1,0.88,1.05,Variable
218475a0b,sx3217057a.2,"[2, 0]",1,A,wye,0.12,1.6224685549736,0.4066289496470188,0.97,1,0.88,1.05,Variable
223655c0a,sx2936268c.1,"[1, 0]",1,C,wye,0.12,3.17055389285088,0.7946157078342869,0.97,1,0.88,1.05,Variable
223655c0b,sx2936268c.2,"[2, 0]",1,C,wye,0.12,2.92944610714912,0.7341884007218723,0.97,1,0.88,1.05,Variable
223658a0a,sx2823592a.1,"[1, 0]",1,A,wye,0.12,1.21636754393578,0.3048504424071123,0.97,1,0.88,1.05,Variable
223658a0b,sx2823592a.2,"[2, 0]",1,A,wye,0.12,0.553632456064224,0.13875337269852836,0.97,1,0.88,1.05,Variable
223660c0a,sx3160863c.1,"[1, 0]",1,C,wye,0.12,0.480949193239212,0.12053722993948811,0.97,1,0.88,1.05,Variable
223660c0b,sx3160863c.2,"[2, 0]",1,C,wye,0.12,5.61905080676079,1.4082668786166719,0.97,1,0.88,1.05,Variable
223661c0a,sx2730108c.1,"[1, 0]",1,C,wye,0.12,4.02298564910889,1.008255244101662,0.97,1,0.88,1.05,Variable
223661c0b,sx2730108c.2,"[2, 0]",1,C,wye,0.12,2.07701435089111,0.5205488644544973,0.97,1,0.88,1.05,Variable
223662c0a,sx2786204c.1,"[1, 0]",1,C,wye,0.12,5.16334467053413,1.2940561551154306,0.97,1,0.88,1.05,Variable
223662c0b,sx2786204c.2,"[2, 0]",1,C,wye,0.12,10.0966553294659,2.53046035251851,0.97,1,0.88,1.05,Variable
223663c0a,sx2936216c.1,"[1, 0]",1,C,wye,0.12,3.97553170561791,0.996362164794088,0.97,1,0.88,1.05,Variable
223663c0b,sx2936216c.2,"[2, 0]",1,C,wye,0.12,0.0944682943820951,0.023675986324531103,0.97,1,0.88,1.05,Variable
247036c0a,sx3029498c.1,"[1, 0]",1,C,wye,0.12,0.911813089251518,0.22852190116114832,0.97,1,0.88,1.05,Variable
247036c0b,sx3029498c.2,"[2, 0]",1,C,wye,0.12,3.15818691074848,0.7915162499574689,0.97,1,0.88,1.05,Variable
247056a0a,sx2991912a.1,"[1, 0]",1,A,wye,0.12,2.29926190376282,0.5762493516588945,0.97,1,0.88,1.05,Variable
247056a0b,sx2991912a.2,"[2, 0]",1,A,wye,0.12,3.02073809623718,0.7570683299015594,0.97,1,0.88,1.05,Variable
...
